@<TRIPOS>MOLECULE
ZINC41475107_139
   40    41     0     0     0
SMALL
USER_CHARGES

mmff94s_NoEstat = 67.18
@<TRIPOS>ATOM
      1 C1          3.9965   -3.8077    0.8030 C.ar      1 <0>        -0.1277
      2 C2          4.5689   -5.0588    1.0321 C.ar      1 <0>        -0.0933
      3 C3          2.8746   -3.4102    1.5304 C.ar      1 <0>        -0.0878
      4 C4          3.9259    2.4227    3.6711 C.ar      1 <0>        -0.0950
      5 C5          2.7230    2.4150    4.3772 C.ar      1 <0>        -0.1754
      6 C6          4.0194   -5.9126    1.9885 C.ar      1 <0>        -0.1524
      7 C7          3.6736    0.0635    3.2157 C.ar      1 <0>        -0.1525
      8 C8          4.4012    1.2469    3.0903 C.ar      1 <0>        -0.0925
      9 C9          2.3251   -4.2640    2.4868 C.ar      1 <0>        -0.1166
     10 C10         1.9954    1.2316    4.5027 C.ar      1 <0>         0.1061
     11 C11         2.4707    0.0558    3.9219 C.ar      1 <0>         0.1006
     12 C12         2.8975   -5.5152    2.7159 C.ar      1 <0>         0.1006
     13 C13         0.4067    2.4795    5.7574 C.3       1 <0>         0.0252
     14 C14         1.1122   -3.8313    3.2711 C.3       1 <0>        -0.0767
     15 C15         5.6874    1.2552    2.3358 C.3       1 <0>         0.1199
     16 C16         1.4859   -3.3975    4.6886 C.3       1 <0>        -0.1124
     17 C17         2.4236   -2.1982    4.6789 C.3       1 <0>         0.0589
     18 O1          5.4891    1.8740    1.0705 O.3       1 <0>        -0.5677
     19 O2          0.8223    1.2365    5.1946 O.3       1 <0>        -0.3054
     20 O3          1.7686   -1.1058    4.0372 O.3       1 <0>        -0.3024
     21 F1          2.3766   -6.3425    3.6329 F         1 <0>        -0.1369
     22 H1          4.4243   -3.1430    0.0581 H         1 <0>         0.1307
     23 H2          5.4423   -5.3684    0.4656 H         1 <0>         0.1331
     24 H3          2.4352   -2.4337    1.3447 H         1 <0>         0.1331
     25 H4          4.4861    3.3493    3.5783 H         1 <0>         0.1285
     26 H5          2.3584    3.3344    4.8274 H         1 <0>         0.1379
     27 H6          4.4648   -6.8869    2.1671 H         1 <0>         0.1358
     28 H7          4.0421   -0.8542    2.7639 H         1 <0>         0.1354
     29 H8         -0.5425    2.3438    6.2815 H         1 <0>         0.1017
     30 H9          0.2934    3.2208    4.9623 H         1 <0>         0.0557
     31 H10         1.1657    2.8206    6.4654 H         1 <0>         0.0556
     32 H11         0.3854   -4.6528    3.3134 H         1 <0>         0.0795
     33 H12         0.6093   -3.0060    2.7504 H         1 <0>         0.0825
     34 H13         6.4669    1.8077    2.8782 H         1 <0>         0.0544
     35 H14         6.0598    0.2342    2.1748 H         1 <0>         0.0570
     36 H15         1.9608   -4.2248    5.2322 H         1 <0>         0.0782
     37 H16         0.5851   -3.1490    5.2653 H         1 <0>         0.0765
     38 H17         2.6837   -1.8974    5.6989 H         1 <0>         0.0627
     39 H18         3.3423   -2.4253    4.1286 H         1 <0>         0.0637
     40 H19         6.3459    1.8584    0.6150 H         1 <0>         0.3814
@<TRIPOS>BOND
     1    1    2 ar
     2    1    3 ar
     3    2    6 ar
     4    3    9 ar
     5    4    5 ar
     6    4    8 ar
     7    5   10 ar
     8    6   12 ar
     9    7    8 ar
    10    7   11 ar
    11    8   15 1
    12    9   12 ar
    13    9   14 1
    14   10   11 ar
    15   10   19 1
    16   11   20 1
    17   12   21 1
    18   13   19 1
    19   14   16 1
    20   15   18 1
    21   16   17 1
    22   17   20 1
    23    1   22 1
    24    2   23 1
    25    3   24 1
    26    4   25 1
    27    5   26 1
    28    6   27 1
    29    7   28 1
    30   13   29 1
    31   13   30 1
    32   13   31 1
    33   14   32 1
    34   14   33 1
    35   15   34 1
    36   15   35 1
    37   16   36 1
    38   16   37 1
    39   17   38 1
    40   17   39 1
    41   18   40 1