@<TRIPOS>MOLECULE
ZINC41475107_198
   40    41     0     0     0
SMALL
USER_CHARGES

mmff94s_NoEstat = 67.43
@<TRIPOS>ATOM
      1 C1         -0.9099   -6.8316    5.8845 C.ar      1 <0>        -0.1277
      2 C2         -0.4826   -8.0211    5.2944 C.ar      1 <0>        -0.0933
      3 C3         -0.0636   -5.7231    5.9113 C.ar      1 <0>        -0.0878
      4 C4          2.8678    2.7079    5.2561 C.ar      1 <0>        -0.0950
      5 C5          1.5738    2.4743    4.7906 C.ar      1 <0>        -0.1754
      6 C6          0.7909   -8.1021    4.7312 C.ar      1 <0>        -0.1524
      7 C7          3.4154    0.3817    4.9011 C.ar      1 <0>        -0.1525
      8 C8          3.7886    1.6616    5.3113 C.ar      1 <0>        -0.0925
      9 C9          1.2099   -5.8041    5.3481 C.ar      1 <0>        -0.1166
     10 C10         1.2006    1.1944    4.3805 C.ar      1 <0>         0.1061
     11 C11         2.1214    0.1481    4.4357 C.ar      1 <0>         0.1006
     12 C12         1.6372   -6.9936    4.7581 C.ar      1 <0>         0.1006
     13 C13        -1.0455    0.6067    4.8956 C.3       1 <0>         0.0252
     14 C14         2.1222   -4.6040    5.3792 C.3       1 <0>        -0.0767
     15 C15         5.1718    1.9115    5.8094 C.3       1 <0>         0.1199
     16 C16         1.4859   -3.3975    4.6886 C.3       1 <0>        -0.1124
     17 C17         2.4236   -2.1982    4.6789 C.3       1 <0>         0.0589
     18 O1          6.1075    1.5889    4.7877 O.3       1 <0>        -0.5677
     19 O2         -0.0658    0.9786    3.9279 O.3       1 <0>        -0.3054
     20 O3          1.7686   -1.1058    4.0372 O.3       1 <0>        -0.3024
     21 F1          2.8592   -7.0810    4.2143 F         1 <0>        -0.1369
     22 H1         -1.9014   -6.7687    6.3232 H         1 <0>         0.1307
     23 H2         -1.1415   -8.8843    5.2736 H         1 <0>         0.1331
     24 H3         -0.4050   -4.8007    6.3737 H         1 <0>         0.1331
     25 H4          3.1500    3.7083    5.5735 H         1 <0>         0.1285
     26 H5          0.8612    3.2938    4.7503 H         1 <0>         0.1379
     27 H6          1.1239   -9.0281    4.2717 H         1 <0>         0.1358
     28 H7          4.1314   -0.4353    4.9433 H         1 <0>         0.1354
     29 H8         -2.0104    0.4653    4.4025 H         1 <0>         0.1017
     30 H9         -1.1236    1.3884    5.6554 H         1 <0>         0.0557
     31 H10        -0.7401   -0.3295    5.3689 H         1 <0>         0.0556
     32 H11         3.0754   -4.8500    4.8937 H         1 <0>         0.0795
     33 H12         2.3662   -4.3508    6.4191 H         1 <0>         0.0825
     34 H13         5.3118    2.9634    6.0938 H         1 <0>         0.0544
     35 H14         5.3915    1.2995    6.6950 H         1 <0>         0.0570
     36 H15         0.5471   -3.1198    5.1856 H         1 <0>         0.0782
     37 H16         1.2064   -3.6478    3.6567 H         1 <0>         0.0765
     38 H17         2.6837   -1.8974    5.6989 H         1 <0>         0.0627
     39 H18         3.3423   -2.4253    4.1286 H         1 <0>         0.0637
     40 H19         6.9898    1.7651    5.1517 H         1 <0>         0.3814
@<TRIPOS>BOND
     1    1    2 ar
     2    1    3 ar
     3    2    6 ar
     4    3    9 ar
     5    4    5 ar
     6    4    8 ar
     7    5   10 ar
     8    6   12 ar
     9    7    8 ar
    10    7   11 ar
    11    8   15 1
    12    9   12 ar
    13    9   14 1
    14   10   11 ar
    15   10   19 1
    16   11   20 1
    17   12   21 1
    18   13   19 1
    19   14   16 1
    20   15   18 1
    21   16   17 1
    22   17   20 1
    23    1   22 1
    24    2   23 1
    25    3   24 1
    26    4   25 1
    27    5   26 1
    28    6   27 1
    29    7   28 1
    30   13   29 1
    31   13   30 1
    32   13   31 1
    33   14   32 1
    34   14   33 1
    35   15   34 1
    36   15   35 1
    37   16   36 1
    38   16   37 1
    39   17   38 1
    40   17   39 1
    41   18   40 1