@<TRIPOS>MOLECULE
ZINC41475107_195
   40    41     0     0     0
SMALL
USER_CHARGES

mmff94s_NoEstat = 67.41
@<TRIPOS>ATOM
      1 C1          5.7938   -5.4039    4.8409 C.ar      1 <0>        -0.1277
      2 C2          5.8090   -5.7446    3.4884 C.ar      1 <0>        -0.0933
      3 C3          4.5966   -5.0340    5.4536 C.ar      1 <0>        -0.0878
      4 C4          4.1808    1.5961    2.0077 C.ar      1 <0>        -0.0950
      5 C5          3.1906    0.8962    1.3183 C.ar      1 <0>        -0.1754
      6 C6          4.6269   -5.7153    2.7485 C.ar      1 <0>        -0.1524
      7 C7          3.5459    0.4791    4.0538 C.ar      1 <0>        -0.1525
      8 C8          4.3585    1.3876    3.3755 C.ar      1 <0>        -0.0925
      9 C9          3.4145   -5.0047    4.7138 C.ar      1 <0>        -0.1166
     10 C10         2.3781   -0.0122    1.9967 C.ar      1 <0>         0.1061
     11 C11         2.5557   -0.2208    3.3644 C.ar      1 <0>         0.1006
     12 C12         3.4296   -5.3453    3.3612 C.ar      1 <0>         0.1006
     13 C13         1.7859   -1.9410    0.7377 C.3       1 <0>         0.0252
     14 C14         2.1222   -4.6040    5.3792 C.3       1 <0>        -0.0767
     15 C15         5.4168    2.1362    4.1124 C.3       1 <0>         0.1199
     16 C16         1.4859   -3.3975    4.6886 C.3       1 <0>        -0.1124
     17 C17         2.4236   -2.1982    4.6789 C.3       1 <0>         0.0589
     18 O1          4.8142    3.1616    4.8925 O.3       1 <0>        -0.5677
     19 O2          1.4145   -0.6896    1.3127 O.3       1 <0>        -0.3054
     20 O3          1.7686   -1.1058    4.0372 O.3       1 <0>        -0.3024
     21 F1          2.2987   -5.3202    2.6421 F         1 <0>        -0.1369
     22 H1          6.7144   -5.4265    5.4169 H         1 <0>         0.1307
     23 H2          6.7412   -6.0326    3.0113 H         1 <0>         0.1331
     24 H3          4.5946   -4.7697    6.5078 H         1 <0>         0.1331
     25 H4          4.8094    2.3019    1.4712 H         1 <0>         0.1285
     26 H5          3.0573    1.0635    0.2529 H         1 <0>         0.1379
     27 H6          4.6382   -5.9805    1.6955 H         1 <0>         0.1358
     28 H7          3.6825    0.3149    5.1198 H         1 <0>         0.1354
     29 H8          0.9261   -2.3753    0.2218 H         1 <0>         0.1017
     30 H9          2.1315   -2.6163    1.5245 H         1 <0>         0.0557
     31 H10         2.5935   -1.7769    0.0204 H         1 <0>         0.0556
     32 H11         2.3056   -4.3728    6.4365 H         1 <0>         0.0795
     33 H12         1.4223   -5.4496    5.3690 H         1 <0>         0.0825
     34 H13         5.9844    1.4746    4.7811 H         1 <0>         0.0544
     35 H14         6.1340    2.5961    3.4186 H         1 <0>         0.0570
     36 H15         0.5471   -3.1198    5.1856 H         1 <0>         0.0782
     37 H16         1.2064   -3.6478    3.6567 H         1 <0>         0.0765
     38 H17         2.6837   -1.8974    5.6989 H         1 <0>         0.0627
     39 H18         3.3423   -2.4253    4.1286 H         1 <0>         0.0637
     40 H19         5.5342    3.6215    5.3530 H         1 <0>         0.3814
@<TRIPOS>BOND
     1    1    2 ar
     2    1    3 ar
     3    2    6 ar
     4    3    9 ar
     5    4    5 ar
     6    4    8 ar
     7    5   10 ar
     8    6   12 ar
     9    7    8 ar
    10    7   11 ar
    11    8   15 1
    12    9   12 ar
    13    9   14 1
    14   10   11 ar
    15   10   19 1
    16   11   20 1
    17   12   21 1
    18   13   19 1
    19   14   16 1
    20   15   18 1
    21   16   17 1
    22   17   20 1
    23    1   22 1
    24    2   23 1
    25    3   24 1
    26    4   25 1
    27    5   26 1
    28    6   27 1
    29    7   28 1
    30   13   29 1
    31   13   30 1
    32   13   31 1
    33   14   32 1
    34   14   33 1
    35   15   34 1
    36   15   35 1
    37   16   36 1
    38   16   37 1
    39   17   38 1
    40   17   39 1
    41   18   40 1