@<TRIPOS>MOLECULE
ZINC41475107_171
   40    41     0     0     0
SMALL
USER_CHARGES

mmff94s_NoEstat = 67.33
@<TRIPOS>ATOM
      1 C1         -0.3893   -7.2545    3.9332 C.ar      1 <0>        -0.1277
      2 C2         -1.6311   -7.1391    3.3087 C.ar      1 <0>        -0.0933
      3 C3          0.5003   -6.1801    3.9205 C.ar      1 <0>        -0.0878
      4 C4          4.1808    1.5961    2.0077 C.ar      1 <0>        -0.0950
      5 C5          3.1906    0.8962    1.3183 C.ar      1 <0>        -0.1754
      6 C6         -1.9834   -5.9494    2.6713 C.ar      1 <0>        -0.1524
      7 C7          3.5459    0.4791    4.0538 C.ar      1 <0>        -0.1525
      8 C8          4.3585    1.3876    3.3755 C.ar      1 <0>        -0.0925
      9 C9          0.1480   -4.9904    3.2831 C.ar      1 <0>        -0.1166
     10 C10         2.3781   -0.0122    1.9967 C.ar      1 <0>         0.1061
     11 C11         2.5557   -0.2208    3.3644 C.ar      1 <0>         0.1006
     12 C12        -1.0939   -4.8751    2.6585 C.ar      1 <0>         0.1006
     13 C13         1.2981   -0.4188   -0.0828 C.3       1 <0>         0.0252
     14 C14         1.1122   -3.8313    3.2711 C.3       1 <0>        -0.0767
     15 C15         5.4168    2.1362    4.1124 C.3       1 <0>         0.1199
     16 C16         1.4859   -3.3975    4.6886 C.3       1 <0>        -0.1124
     17 C17         2.4236   -2.1982    4.6789 C.3       1 <0>         0.0589
     18 O1          6.6903    1.5854    3.7993 O.3       1 <0>        -0.5677
     19 O2          1.4145   -0.6896    1.3127 O.3       1 <0>        -0.3054
     20 O3          1.7686   -1.1058    4.0372 O.3       1 <0>        -0.3024
     21 F1         -1.4413   -3.7359    2.0436 F         1 <0>        -0.1369
     22 H1         -0.1149   -8.1810    4.4292 H         1 <0>         0.1307
     23 H2         -2.3237   -7.9756    3.3185 H         1 <0>         0.1331
     24 H3          1.4658   -6.2794    4.4093 H         1 <0>         0.1331
     25 H4          4.8094    2.3019    1.4712 H         1 <0>         0.1285
     26 H5          3.0573    1.0635    0.2529 H         1 <0>         0.1379
     27 H6         -2.9502   -5.8593    2.1849 H         1 <0>         0.1358
     28 H7          3.6825    0.3149    5.1198 H         1 <0>         0.1354
     29 H8          0.4932   -1.0244   -0.5064 H         1 <0>         0.1017
     30 H9          2.2434   -0.6509   -0.5800 H         1 <0>         0.0557
     31 H10         1.0661    0.6398   -0.2214 H         1 <0>         0.0556
     32 H11         0.6692   -2.9861    2.7285 H         1 <0>         0.0795
     33 H12         2.0180   -4.1085    2.7164 H         1 <0>         0.0825
     34 H13         5.4186    3.2007    3.8401 H         1 <0>         0.0544
     35 H14         5.2633    2.0750    5.1985 H         1 <0>         0.0570
     36 H15         1.9608   -4.2248    5.2322 H         1 <0>         0.0782
     37 H16         0.5851   -3.1490    5.2653 H         1 <0>         0.0765
     38 H17         2.6837   -1.8974    5.6989 H         1 <0>         0.0627
     39 H18         3.3423   -2.4253    4.1286 H         1 <0>         0.0637
     40 H19         7.3465    2.0990    4.2970 H         1 <0>         0.3814
@<TRIPOS>BOND
     1    1    2 ar
     2    1    3 ar
     3    2    6 ar
     4    3    9 ar
     5    4    5 ar
     6    4    8 ar
     7    5   10 ar
     8    6   12 ar
     9    7    8 ar
    10    7   11 ar
    11    8   15 1
    12    9   12 ar
    13    9   14 1
    14   10   11 ar
    15   10   19 1
    16   11   20 1
    17   12   21 1
    18   13   19 1
    19   14   16 1
    20   15   18 1
    21   16   17 1
    22   17   20 1
    23    1   22 1
    24    2   23 1
    25    3   24 1
    26    4   25 1
    27    5   26 1
    28    6   27 1
    29    7   28 1
    30   13   29 1
    31   13   30 1
    32   13   31 1
    33   14   32 1
    34   14   33 1
    35   15   34 1
    36   15   35 1
    37   16   36 1
    38   16   37 1
    39   17   38 1
    40   17   39 1
    41   18   40 1